&clm_inparm
 albice = 0.60,0.40
 co2_type = 'diagnostic'
 create_crop_landunit = .false.
 dtime = 1800
 fatmlndfrc = '/compyfs/inputdata/share/domains/domain.lnd.ne30np4_gx1v6.110905.nc'
 finidat = '/compyfs/inputdata/lnd/clm2/initdata_map/clmi.ICLM45BC.ne30_ne30.d0241119c.clm2.r.nc'
 fsnowaging = '/compyfs/inputdata/lnd/clm2/snicardata/snicar_drdt_bst_fit_60_c070416.nc'
 fsnowoptics = '/compyfs/inputdata/lnd/clm2/snicardata/snicar_optics_5bnd_mam_c160322.nc'
 fsoilordercon = '/compyfs/inputdata/lnd/clm2/paramdata/CNP_parameters_c131108.nc'
 fsurdat = '/compyfs/inputdata/lnd/clm2/surfdata_map/surfdata_ne30np4_simyr2000_c190730.nc'
 glc_do_dynglacier = .false.
 maxpatch_glcmec = 0
 maxpatch_pft = 17
 more_vertlayers = .false.
 nsegspc = 20
 paramfile = '/compyfs/inputdata/lnd/clm2/paramdata/clm_params_c180301.nc'
 urban_hac = 'ON'
 urban_traffic = .false.
 use_century_decomp = .false.
 use_cn = .false.
 use_crop = .false.
 use_dynroot = .false.
 use_fates = .false.
 use_lai_streams = .false.
 use_lch4 = .false.
 use_nitrif_denitrif = .false.
 use_vertsoilc = .true.
/
&ndepdyn_nml
/
&pdepdyn_nml
/
&popd_streams
/
&light_streams
/
&lai_streams
 lai_mapalgo = 'bilinear'
 model_year_align_lai = 2001
 stream_fldfilename_lai = '/compyfs/inputdata/lnd/clm2/lai_streams/MODISPFTLAI_0.5x0.5_c140711.nc'
 stream_year_first_lai = 2001
 stream_year_last_lai = 2013
/
&clm_canopyhydrology_inparm
/
&clm_soilhydrology_inparm
/
&dynamic_subgrid
/
&finidat_consistency_checks
/
&dynpft_consistency_checks
/
&clmu_inparm
/
&clm_soilstate_inparm
/
&clm_pflotran_inparm
/
&betr_inparm
/
&clm_humanindex_inparm
/
!#--------------------------------------------------------------------------------------------------------------------------
!# lnd_in:: Comment:
!# This namelist was created using the following command-line:
!#     /compyfs/shpu881/SCREAM-forked-github/components/clm/bld/CLM build-namelist -infile /compyfs/shpu881/SCREAM-forked-github/cases/compy_FSCREAM-LR_ne30_SCREAM-forked-github_constAero/Buildconf/clmconf/namelist -csmdata /compyfs/inputdata -inputdata /compyfs/shpu881/SCREAM-forked-github/cases/compy_FSCREAM-LR_ne30_SCREAM-forked-github_constAero/Buildconf/clm.input_data_list -ignore_ic_year -namelist  &clm_inparm  start_ymd=00010101  / -use_case 2000_control -res ne30np4 -clm_start_type default -envxml_dir /compyfs/shpu881/SCREAM-forked-github/cases/compy_FSCREAM-LR_ne30_SCREAM-forked-github_constAero -l_ncpl 48 -lnd_frac /compyfs/inputdata/share/domains/domain.lnd.ne30np4_gx1v6.110905.nc -glc_nec 0 -co2_ppmv 367.0 -co2_type diagnostic -config /compyfs/shpu881/SCREAM-forked-github/cases/compy_FSCREAM-LR_ne30_SCREAM-forked-github_constAero/Buildconf/clmconf/config_cache.xml -bgc sp -mask gx1v6
!# For help on options use: /compyfs/shpu881/SCREAM-forked-github/components/clm/bld/CLM build-namelist -help
!#--------------------------------------------------------------------------------------------------------------------------
